/*--------------------------------*- C++ -*----------------------------------*\
  OpenFOAM v13  |  g
\*---------------------------------------------------------------------------*/

FoamFile
{
    format      ascii;
    class       uniformDimensionedVectorField;
    object      g;
}

dimensions      [0 1 -2 0 0 0 0];
value           ( 0 0 -9.81 );   // gravity in -Z (axial) direction

// * * * * * * * * * * * * * * * * * * * * * * * * * * * * * * * * * * * * * //
