/*--------------------------------*- C++ -*----------------------------------*\
| =========                 |                                                 |
| \\      /  F ield         | OpenFOAM: The Open Source CFD Toolbox           |
|  \\    /   O peration     | Version:  2.2.0                                 |
|   \\  /    A nd           | Web:      www.OpenFOAM.org                      |
|    \\/     M anipulation  |                                                 |
\*---------------------------------------------------------------------------*/
FoamFile
{
    version     2.0;
    format      ascii;
    class       dictionary;
    object      snappyHexMeshDict;
}
// * * * * * * * * * * * * * * * * * * * * * * * * * * * * * * * * * * * * * //
castellatedMesh true;
snap            true;
addLayers       false;



geometry
{
	fuel_inletfull.stl {type triSurfaceMesh; name FuelF;}
	fuel_inlethalf.stl {type triSurfaceMesh; name FuelH;}
	Outlet.stl	{type triSurfaceMesh; name Outlet;}
	oxidiser.stl	{type triSurfaceMesh; name ox;}
	Walls.stl	{type triSurfaceMesh; name Walls;}
	Wedge1.stl	{type triSurfaceMesh; name Wedge1;}
	Wedge2.stl	{type triSurfaceMesh; name Wedge2;}
}


// Settings for the castellatedMesh generation.
castellatedMeshControls
{
    // Refinement parameters
    // ~~~~~~~~~~~~~~~~~~~~~

    // If local number of cells is >= maxLocalCells on any processor
    // switches from from refinement followed by balancing
    // (current method) to (weighted) balancing before refinement.
    maxLocalCells 4000000;

    // Overall cell limit (approximately). Refinement will stop immediately
    // upon reaching this number so a refinement level might not complete.
    // Note that this is the number of cells before removing the part which
    // is not 'visible' from the keepPoint. The final number of cells might
    // actually be a lot less.
    maxGlobalCells 40000000;

    // The surface refinement loop might spend lots of iterations refining just a
    // few cells. This setting will cause refinement to stop if <= minimumRefine
    // are selected for refinement. Note: it will at least do one iteration
    // (unless the number of cells to refine is 0)
    minRefinementCells 10;

    // Allow a certain level of imbalance during refining
    // (since balancing is quite expensive)
    // Expressed as fraction of perfect balance (= overall number of cells /
    // nProcs). 0=balance always.
    maxLoadUnbalance 0.02;


    // Number of buffer layers between different levels.s
    // 1 means normal 2:1 refinement restriction, larger means slower
    // refinement.
    nCellsBetweenLevels 3;
    resolveFeatureAngle	30;


    // Explicit feature edge refinement
    // ~~~~~~~~~~~~~~~~~~~~~~~~~~~~~~~~

    // Specifies a level for any cell intersected by its edges.
    // This is a featureEdgeMesh, read from constant/triSurface for now.
    features
(
    { file "fuel_inletfull.eMesh"; level 6; }
    { file "fuel_inlethalf.eMesh"; level 6; }
    { file "oxidiser.eMesh"; level 6; }

    { file "Walls.eMesh"; level 2; }

    { file "Outlet.eMesh"; level 1; }

    { file "Wedge1.eMesh"; level 1; }
    { file "Wedge2.eMesh"; level 1; }
);



    // Surface based refinement
    // ~~~~~~~~~~~~~~~~~~~~~~~~

    // Specifies two levels for every surface. The first is the minimum level,
    // every cell intersecting a surface gets refined up to the minimum level.
    // The second level is the maximum level. Cells that 'see' multiple
    // intersections where the intersections make an
    // angle > resolveFeatureAngle get refined up to the maximum level.

    refinementSurfaces
{
	ox 	{level (6 6); patchInfo {type patch; } }
	FuelF 	{level (6 6); patchInfo {type patch; } }
	FuelH	{level (6 6); patchInfo {type patch; } }
	Outlet  {level (1 1); patchInfo {type patch; } }
	Walls
	{
		level (1 1);
		patchInfo {type wall; }
	}
	Wedge1
	{
        	 level (1 1);
   		 patchInfo { type patch; }
        }

	Wedge2
	{
        	level (1 1);
        	 patchInfo { type patch; }
        }

}

refinementRegions
    {
 	ox
        {
            mode distance;
            levels ((0.001 6)(0.003 5)(0.008 4)(0.02 3)(0.05 2));
        }
        FuelF
        {
            mode distance;
            levels ((0.001 6)(0.003 5)(0.008 4)(0.02 3)(0.05 2));
        }
	FuelH
        {
            mode distance;
            levels ((0.001 6)(0.003 5)(0.008 4)(0.02 3)(0.05 2));
        }

    }




    // Region-wise refinement
    // ~~~~~~~~~~~~~~~~~~~~~~

    // Specifies refinement level for cells in relation to a surface. One of
    // three modes
    // - distance. 'levels' specifies per distance to the surface the
    //   wanted refinement level. The distances need to be specified in
    //   descending order.
    // - inside. 'levels' is only one entry and only the level is used. All
    //   cells inside the surface get refined up to the level. The surface
    //   needs to be closed for this to be possible.
    // - outside. Same but cells outside.



    // Mesh selection
    // ~~~~~~~~~~~~~~

    // After refinement patches get added for all refinementSurfaces and
    // all cells intersecting the surfaces get put into these patches. The
    // section reachable from the locationInMesh is kept.
    // NOTE: This point should never be on a face, always inside a cell, even
    // after refinement.
locationInMesh (0.020 -0.010 0.010);
    // Whether any faceZones (as specified in the refinementSurfaces)
    // are only on the boundary of corresponding cellZones or also allow
    // free-standing zone faces. Not used if there are no faceZones.
    allowFreeStandingZoneFaces true;
}



// Settings for the snapping.
snapControls
{
    //- Number of patch smoothing iterations before finding correspondence
    //  to surface
    nSmoothPatch 4;

    //- Relative distance for points to be attracted by surface feature point
    //  or edge. True distance is this factor times local
    //  maximum edge length.
    tolerance 2.0;

    //- Number of mesh displacement relaxation iterations.
    nSolveIter 50;

    //- Maximum number of snapping relaxation iterations. Should stop
    //  before upon reaching a correct mesh.
    nRelaxIter 5;

    // Feature snapping

        //- Number of feature edge snapping iterations.
        //  Leave out altogether to disable.
        nFeatureSnapIter 12;

        //- Detect (geometric only) features by sampling the surface
        //  (default=false).
        implicitFeatureSnap false;

        //- Use castellatedMeshControls::features (default = true)
        explicitFeatureSnap true;

        //- Detect points on multiple surfaces (only for explicitFeatureSnap)
        multiRegionFeatureSnap false;
}
 // check this


// Settings for the layer addition.
addLayersControls
{
    layers{}
    // Are the thickness parameters below relative to the undistorted
    // size of the refined cell outside layer (true) or absolute sizes (false).
    relativeSizes true;

    // Expansion factor for layer mesh
    expansionRatio 1.2;

    // Wanted thickness of the layer next to the wall.
    // If relativeSizes this is relative to undistorted size of cell
    // outside layer.
    firstLayerThickness 0.3;


    // Minimum overall thickness of total layers. If for any reason layer
    // cannot be above minThickness do not add layer.
    // If relativeSizes this is relative to undistorted size of cell
    // outside layer..
    minThickness 0.1;



    // If points get not extruded do nGrow layers of connected faces that are
    // also not grown. This helps convergence of the layer addition process
    // close to features.
    // Note: changed(corrected) w.r.t 17x! (didn't do anything in 17x)
    nGrow 0;

    // Advanced settings


    // Static analysis of starting mesh

        // When not to extrude surface. 0 is flat surface, 90 is when two faces
        // are perpendicular

        // Stop layer growth on highly warped cells
        maxFaceThicknessRatio 0.5;


    // Patch displacement

        // Number of smoothing iterations of surface normals
        nSmoothSurfaceNormals 3;

        // Number of smoothing iterations of interior mesh movement direction
        nSmoothNormals 6;

        // Smooth layer thickness over surface patches
        nSmoothThickness 10;



    // Medial axis analysis

        // Angle used to pick up medial axis points
        // Note: changed(corrected) w.r.t 17x! 90 degrees corresponds to 130
        // in 17x.
        minMedialAxisAngle 90;

        // Reduce layer growth where ratio thickness to medial
        // distance is large
        maxThicknessToMedialRatio 0.5;


    // Mesh shrinking

        // Optional: at non-patched sides allow mesh to slip if extrusion
        // direction makes angle larger than slipFeatureAngle. Default is
        // 0.5*featureAngle.
        slipFeatureAngle 70;

        // Maximum number of snapping relaxation iterations. Should stop
        // before upon reaching a correct mesh.
        nRelaxIter 5;

        // Create buffer region for new layer terminations
        nBufferCellsNoExtrude 2;

        // Overall max number of layer addition iterations. The mesher will
        // exit if it reaches this number of iterations; possibly with an
        // illegal mesh.
        nLayerIter 50;

        // Max number of iterations after which relaxed meshQuality controls
        // get used. Up to nRelaxedIter it uses the settings in
        // meshQualityControls,
        // after nRelaxedIter it uses the values in
        // meshQualityControls::relaxed.
        nRelaxedIter 20;
}



// Generic mesh quality settings. At any undoable phase these determine
// where to undo.
meshQualityControls
{
    #include "meshQualityDict"


    minVol  1e-18;
    minTetQuality 1e-12;

    // Advanced

    //- Number of error distribution iterations
    nSmoothScale 4;
    //- Amount to scale back displacement at error points
    errorReduction 0.75;
}


// Advanced

// Flags for optional output
// 0 : only write final meshes
// 1 : write intermediate meshes
// 2 : write volScalarField with cellLevel for postprocessing
// 4 : write current intersections as .obj files
debug 0;


// Merge tolerance. Is fraction of overall bounding box of initial mesh.
// Note: the write tolerance needs to be higher than this.
mergeTolerance 1e-7;


// ************************************************************************* //
