/*--------------------------------*- C++ -*----------------------------------*\
  =========                 |
  \\      /  F ield         | OpenFOAM: The Open Source CFD Toolbox
   \\    /   O peration     | Website:  https://openfoam.org
    \\  /    A nd           | Version:  13
     \\/     M anipulation  |
\*---------------------------------------------------------------------------*/
FoamFile
{
    format      binary;
    class       volScalarField;
    location    "0";
    object      O2;
}
// * * * * * * * * * * * * * * * * * * * * * * * * * * * * * * * * * * * * * //

dimensions      [];

internalField   uniform 0.4706;

boundaryField
{
    Wall
    {
        type            zeroGradient;
    }
    fluid-for-engine-interior-for-3d-cad:1
    {
        type            zeroGradient;
    }
    fuelInlet
    {
        type            fixedValue;
        value           uniform 0;
    }
    oxidiserInlet
    {
        type            fixedValue;
        value           uniform 0.4706;
    }
    wedge_pos
    {
        type            symmetry;
    }
    wedge_neg
    {
        type            symmetry;
    }
    Outlet
    {
        type            inletOutlet;
        inletValue      uniform 0.4706;
        value           uniform 0.4706;
    }
}


// ************************************************************************* //
