/*--------------------------------*- C++ -*----------------------------------*\
  =========                 |
  \\      /  F ield         | OpenFOAM: The Open Source CFD Toolbox
   \\    /   O peration     | Website:  https://openfoam.org
    \\  /    A nd           | Version:  13
     \\/     M anipulation  |
\*---------------------------------------------------------------------------*/
FoamFile
{
    format      binary;
    class       volScalarField;
    location    "0";
    object      p;
}
// * * * * * * * * * * * * * * * * * * * * * * * * * * * * * * * * * * * * * //

dimensions      [1 -1 -2 0 0 0 0];

internalField   uniform 2000000;

boundaryField
{
    Wall
    {
        type            zeroGradient;
    }
    fluid-for-engine-interior-for-3d-cad:1
    {
        type            zeroGradient;
    }
    fuelInlet
    {
        type            zeroGradient;
    }
    oxidiserInlet
    {
        type            zeroGradient;
    }
    wedge_pos
    {
        type            symmetry;
    }
    wedge_neg
    {
        type            symmetry;
    }
    Outlet
    {
        type            fixedValue;
        value           uniform 2000000;
    }
}


// ************************************************************************* //
